Version 4
SHEET 1 3412 1168
WIRE 2944 -272 2944 -304
WIRE 2992 -272 2944 -272
WIRE 2944 -176 2944 -272
WIRE 2992 -176 2944 -176
WIRE 2944 -112 2944 -176
WIRE 3104 -112 2944 -112
WIRE 1360 -80 1360 -112
WIRE 1408 -80 1360 -80
WIRE 2944 -64 2944 -112
WIRE 3104 -16 3104 -32
WIRE 3104 0 3104 -16
WIRE 1360 16 1360 -80
WIRE 1408 16 1360 16
WIRE 2944 48 2944 16
WIRE 3024 48 2944 48
WIRE 3040 48 3024 48
WIRE 1936 64 1936 16
WIRE 1360 80 1360 16
WIRE 1520 80 1360 80
WIRE 2944 96 2944 48
WIRE 1360 128 1360 80
WIRE 3104 144 3104 96
WIRE 1936 160 1936 64
WIRE -64 176 -64 144
WIRE 48 176 -64 176
WIRE 1520 192 1520 160
WIRE -64 208 -64 176
WIRE 48 208 48 176
WIRE 1936 208 1936 160
WIRE 1936 208 1808 208
WIRE 3104 208 3104 144
WIRE 3200 208 3104 208
WIRE 3344 208 3264 208
WIRE 1808 224 1808 208
WIRE 3104 224 3104 208
WIRE 1104 240 1040 240
WIRE 1232 240 1168 240
WIRE 1360 240 1360 208
WIRE 1360 240 1232 240
WIRE 1456 240 1360 240
WIRE 3344 240 3344 208
WIRE 1040 288 1040 240
WIRE 1232 288 1232 240
WIRE 1360 288 1360 240
WIRE -64 304 -64 288
WIRE 48 304 48 272
WIRE 48 304 -64 304
WIRE 128 304 48 304
WIRE -64 336 -64 304
WIRE 48 336 48 304
WIRE 3104 336 3104 304
WIRE 1936 352 1936 208
WIRE 1232 400 1232 352
WIRE 1520 400 1520 288
WIRE 1520 400 1232 400
WIRE 1616 400 1520 400
WIRE 1760 400 1680 400
WIRE 1808 400 1808 304
WIRE 1808 400 1760 400
WIRE 1872 400 1808 400
WIRE 1520 416 1520 400
WIRE -64 432 -64 416
WIRE 48 432 48 400
WIRE 48 432 -64 432
WIRE 848 432 752 432
WIRE 1040 432 1040 368
WIRE 1040 432 928 432
WIRE 1232 432 1232 400
WIRE -64 448 -64 432
WIRE 1808 448 1808 400
WIRE 1936 464 1936 448
WIRE 2048 464 1936 464
WIRE 2160 464 2112 464
WIRE 2208 464 2160 464
WIRE 1040 480 1040 432
WIRE 2208 480 2208 464
WIRE 1936 496 1936 464
WIRE 1520 528 1520 496
WIRE 1936 592 1936 576
FLAG 128 304 0
FLAG -64 144 V+
IOPIN -64 144 BiDir
FLAG -64 448 V-
IOPIN -64 448 BiDir
FLAG 1472 16 0
FLAG 1520 608 0
FLAG 1232 496 0
FLAG 672 432 0
FLAG 1360 -192 0
FLAG 1040 544 0
FLAG 1360 368 0
FLAG 144 832 0
FLAG 1936 -64 0
FLAG 1472 -80 0
FLAG 1936 672 0
FLAG 2000 160 0
FLAG 1808 528 0
FLAG 2000 64 0
FLAG 3056 -176 0
FLAG 3104 416 0
FLAG 2944 -384 0
FLAG 2944 176 0
FLAG 3056 -272 0
FLAG 3344 320 0
FLAG 3104 -16 Vc
FLAG 3024 48 vB
FLAG 3104 144 Ve
FLAG 2208 560 0
FLAG 1760 400 VCO
FLAG 2160 464 out
SYMBOL voltage -64 192 R0
SYMATTR InstName VCC
SYMATTR Value 5
SYMBOL voltage -64 320 R0
SYMATTR InstName VEE
SYMATTR Value 5
SYMBOL Cap 32 208 R0
SYMATTR InstName CB1
SYMATTR Value 10µ
SYMBOL Cap 32 336 R0
SYMATTR InstName CB2
SYMATTR Value 10µ
SYMBOL npn 1456 192 R0
SYMATTR InstName Q1
SYMATTR Value BFR93AW
SYMBOL Cap 1472 0 R90
WINDOW 0 0 32 VBottom 2
WINDOW 3 32 32 VTop 2
SYMATTR InstName CB3
SYMATTR Value 100p
SYMBOL Res 1344 112 R0
SYMATTR InstName R1
SYMATTR Value 5.1k
SYMBOL Res 1504 512 R0
SYMATTR InstName R4
SYMATTR Value 470
SYMBOL Cap 1216 288 R0
SYMATTR InstName C1
SYMATTR Value 2.2p
SYMBOL Cap 1216 432 R0
SYMATTR InstName C2
SYMATTR Value 5p
SYMBOL Ind 1024 272 R0
SYMATTR InstName L1
SYMATTR Value 30n
SYMBOL Voltage 768 432 R90
WINDOW 0 -32 56 VBottom 2
WINDOW 3 32 56 VTop 2
SYMATTR InstName Vvar
SYMATTR Value 3
SYMBOL Voltage 1360 -96 R180
WINDOW 0 24 96 Left 2
WINDOW 3 24 16 Left 2
SYMATTR InstName V1
SYMATTR Value 5
SYMBOL Res 1344 272 R0
SYMATTR InstName R2
SYMATTR Value 2.2k
SYMBOL Cap 1168 224 R90
WINDOW 0 0 32 VBottom 2
WINDOW 3 32 32 VTop 2
SYMATTR InstName C11
SYMATTR Value 1.5p
SYMBOL Ind 1504 400 R0
SYMATTR InstName RFC1
SYMATTR Value 56n
SYMBOL Voltage 144 736 R0
SYMATTR InstName V4
SYMATTR Value PULSE(1 3 0 1m 0 0 1m)
SYMBOL varactor 1056 544 R180
WINDOW 0 24 64 Left 2
WINDOW 3 24 0 Left 2
SYMATTR InstName Varicap
SYMATTR Value BBY53
SYMBOL Res 944 416 R90
WINDOW 0 0 56 VBottom 2
WINDOW 3 32 56 VTop 2
SYMATTR InstName R5
SYMATTR Value 10k
SYMBOL npn 1872 352 R0
SYMATTR InstName Q2
SYMATTR Value BFR93AW
SYMBOL Res 1792 208 R0
SYMATTR InstName R8
SYMATTR Value 1k
SYMBOL Voltage 1936 32 R180
WINDOW 0 24 96 Left 2
WINDOW 3 24 16 Left 2
SYMATTR InstName V2
SYMATTR Value 5
SYMBOL Cap 1472 -96 R90
WINDOW 0 0 32 VBottom 2
WINDOW 3 32 32 VTop 2
SYMATTR InstName CB5
SYMATTR Value 100n
SYMBOL Res 1504 64 R0
SYMATTR InstName R11
SYMATTR Value 10
SYMBOL Res 1920 576 R0
SYMATTR InstName R6
SYMATTR Value 50
SYMBOL Cap 1680 384 R90
WINDOW 0 0 32 VBottom 2
WINDOW 3 32 32 VTop 2
SYMATTR InstName C5
SYMATTR Value 10p
SYMBOL Cap 2000 144 R90
WINDOW 0 0 32 VBottom 2
WINDOW 3 32 32 VTop 2
SYMATTR InstName C4
SYMATTR Value 100p
SYMBOL Cap 2000 48 R90
WINDOW 0 0 32 VBottom 2
WINDOW 3 32 32 VTop 2
SYMATTR InstName CB4
SYMATTR Value 100n
SYMBOL Res 1792 432 R0
SYMATTR InstName R3
SYMATTR Value 1k
SYMBOL Ind 1920 480 R0
SYMATTR InstName L2
SYMATTR Value 56n
SYMBOL npn 3040 0 R0
SYMATTR InstName Q3
SYMATTR Value BFR93AW
SYMBOL Cap 3056 -192 R90
WINDOW 0 0 32 VBottom 2
WINDOW 3 32 32 VTop 2
SYMATTR InstName CB6
SYMATTR Value 100p
SYMBOL Res 2928 -80 R0
SYMATTR InstName R7
SYMATTR Value 4.7k
SYMBOL Res 3088 320 R0
SYMATTR InstName R10
SYMATTR Value 50
SYMBOL Voltage 2944 -288 R180
WINDOW 0 24 96 Left 2
WINDOW 3 24 16 Left 2
SYMATTR InstName V3
SYMATTR Value 5
SYMBOL Res 2928 80 R0
SYMATTR InstName R12
SYMATTR Value 7.15k
SYMBOL Ind 3088 208 R0
SYMATTR InstName RFC2
SYMATTR Value 56n
SYMBOL Cap 3056 -288 R90
WINDOW 0 0 32 VBottom 2
WINDOW 3 32 32 VTop 2
SYMATTR InstName CB7
SYMATTR Value 100n
SYMBOL Res 3088 -128 R0
SYMATTR InstName R13
SYMATTR Value 10
SYMBOL Cap 3264 192 R90
WINDOW 0 0 32 VBottom 2
WINDOW 3 32 32 VTop 2
SYMATTR InstName C3
SYMATTR Value 10p
SYMBOL Res 3328 224 R0
SYMATTR InstName R14
SYMATTR Value 50
SYMBOL Res 2192 464 R0
SYMATTR InstName Load
SYMATTR Value 50
SYMBOL Cap 2112 448 R90
WINDOW 0 0 32 VBottom 2
WINDOW 3 32 32 VTop 2
SYMATTR InstName C6
SYMATTR Value 10p
TEXT 600 344 Left 2 ;From sawtooth core
TEXT 488 712 Left 2 ;.tran 0 1000n 200n uic
TEXT 576 784 Left 2 !.tran 0 4000n 2000n uic\n.meas t1 find time when v(OUT)=0 cross=1 td=1500n\n.meas t2 find time when v(OUT)=0 cross=3 td=1500n\n.meas Frequency param 1/(t2-t1)
TEXT 392 680 Left 2 ;.step param Vin 0 3 0.1
TEXT 816 720 Left 2 ;.step param Vs 4 5 0.1
